Version 4
SHEET 1 880 680
WIRE 368 192 352 192
WIRE 288 272 288 192
WIRE 368 288 368 192
WIRE 368 288 352 288
WIRE 400 288 368 288
WIRE 288 304 240 304
FLAG 208 272 0
FLAG 240 384 0
SYMBOL Res 304 256 R90
WINDOW 3 -48 59 VTop 2
WINDOW 0 0 56 VBottom 2
SYMATTR Value 470
SYMATTR InstName Ri
SYMBOL opamp2 320 224 R0
SYMATTR InstName U1
SYMATTR Value TL074
SYMBOL LED 352 176 R90
WINDOW 0 0 32 VBottom 2
WINDOW 3 -47 32 VTop 2
SYMATTR InstName D
SYMATTR Value red
SYMBOL Voltage 240 288 R0
SYMATTR InstName V1
SYMATTR Value 5
TEXT 288 376 Left 2 !.include TL074.txt\n.model red D (N=3.73)\n.dc V1 -10 10 10m
