Version 4
SHEET 1 880 680
WIRE 240 256 208 256
WIRE 208 304 208 256
WIRE 208 304 192 304
WIRE 240 304 208 304
WIRE 320 320 320 256
WIRE 320 320 304 320
WIRE 336 320 320 320
WIRE 448 320 416 320
WIRE 240 336 208 336
WIRE 208 368 208 336
FLAG 112 368 0
FLAG 208 368 0
SYMBOL opamp2 272 256 R0
SYMATTR InstName U1
SYMATTR Value TL074
SYMBOL LED 128 368 R180
WINDOW 0 24 64 Left 2
WINDOW 3 17 84 Left 2
SYMATTR InstName D
SYMATTR Value red
SYMBOL Res 336 240 R90
WINDOW 0 0 56 VBottom 2
WINDOW 3 -46 57 VTop 2
SYMATTR InstName RF
SYMATTR Value 10Meg
SYMBOL Res 432 304 R90
WINDOW 0 0 56 VBottom 2
WINDOW 3 -47 59 VTop 2
SYMATTR InstName Ro
SYMATTR Value 10k
SYMBOL current 112 304 R270
WINDOW 0 32 40 VTop 2
WINDOW 3 -32 40 VBottom 2
SYMATTR InstName Ipd
SYMATTR Value 0
TEXT 240 376 Left 2 !.include TL074.txt\n.model red D (N=3.73)\n.dc Ipd -500n 500n 10n
